Version 4
SHEET 1 3416 680
WIRE 768 -288 768 -320
WIRE 1328 -272 1232 -272
WIRE 768 -192 768 -208
WIRE 896 -192 768 -192
WIRE 944 -192 896 -192
WIRE 768 -176 768 -192
WIRE 1232 -176 1232 -192
WIRE 1232 -176 1152 -176
WIRE 896 -160 896 -192
WIRE 1232 -160 1232 -176
WIRE 1152 -128 1152 -176
WIRE 896 -96 768 -96
WIRE 1328 -80 1232 -80
WIRE 1792 -80 1568 -80
WIRE 1952 -80 1856 -80
WIRE 768 -48 768 -96
WIRE 1232 64 1136 64
WIRE 832 80 624 80
WIRE 944 80 832 80
WIRE 1232 80 1232 64
WIRE 1808 80 1696 80
WIRE 1808 96 1808 80
WIRE 2160 96 2112 96
WIRE 944 112 912 112
WIRE 1376 112 1312 112
WIRE 1424 112 1376 112
WIRE 1568 112 1568 -80
WIRE 1568 112 1504 112
WIRE 1696 112 1696 80
WIRE 1696 112 1648 112
WIRE 1808 112 1776 112
WIRE 2160 112 2160 96
WIRE 1056 128 1024 128
WIRE 1136 128 1136 64
WIRE 1136 128 1056 128
WIRE 1952 128 1952 -80
WIRE 1952 128 1888 128
WIRE 2048 128 2048 96
WIRE 2048 128 1952 128
WIRE 832 192 832 160
WIRE 912 192 912 112
WIRE 1056 192 1056 128
WIRE 1056 192 912 192
WIRE 1776 208 1776 112
WIRE 1952 208 1952 128
WIRE 1952 208 1776 208
WIRE 1136 224 1104 224
WIRE 1232 224 1232 96
WIRE 1232 224 1216 224
WIRE 1296 224 1232 224
WIRE 1376 224 1376 112
WIRE 2160 224 2160 192
WIRE 1104 288 1104 224
FLAG 832 192 0
FLAG 624 160 0
FLAG 1104 288 0
FLAG 1312 80 -12V
FLAG 1312 48 12v
FLAG 1152 -128 0
FLAG 1328 -272 12V
FLAG 1328 -80 -12V
FLAG 1696 176 0
FLAG 1888 96 -12V
FLAG 1888 64 12V
FLAG 1024 64 12V
FLAG 1024 96 -12V
FLAG 768 -48 0
FLAG 2160 224 1.6v
FLAG 768 -320 12v
FLAG 944 -192 1.6v
SYMBOL voltage 624 64 R0
WINDOW 123 24 124 Left 2
WINDOW 39 0 0 Left 0
SYMATTR Value2 AC 0.4
SYMATTR InstName V1
SYMATTR Value SINE(0 0.4 40k)
SYMBOL res 816 64 R0
SYMATTR InstName R1
SYMATTR Value 1G
SYMBOL AutoGenerated\\AD8676_A 1264 80 R0
SYMATTR InstName Stage_1
SYMBOL res 1392 208 R90
WINDOW 0 0 56 VBottom 2
WINDOW 3 32 56 VTop 2
SYMATTR InstName R2
SYMATTR Value 1k
SYMBOL res 1232 208 R90
WINDOW 0 0 56 VBottom 2
WINDOW 3 32 56 VTop 2
SYMATTR InstName R3
SYMATTR Value 330
SYMBOL cap 2112 80 R90
WINDOW 0 0 32 VBottom 2
WINDOW 3 32 32 VTop 2
SYMATTR InstName C1
SYMATTR Value 1.6nf
SYMBOL res 2144 96 R0
SYMATTR InstName R4
SYMATTR Value 22k
SYMBOL voltage 1232 -288 R0
WINDOW 123 0 0 Left 0
WINDOW 39 0 0 Left 0
SYMATTR InstName V3
SYMATTR Value 12
SYMBOL voltage 1232 -176 R0
WINDOW 123 0 0 Left 0
WINDOW 39 0 0 Left 0
SYMATTR InstName V4
SYMATTR Value 12
SYMBOL res 1664 96 R90
WINDOW 0 0 56 VBottom 2
WINDOW 3 32 56 VTop 2
SYMATTR InstName R5
SYMATTR Value 10k
SYMBOL cap 1680 112 R0
SYMATTR InstName C2
SYMATTR Value 330pF
SYMBOL AutoGenerated\\AD8676_A 1840 96 R0
SYMATTR InstName Stage_2
SYMBOL AutoGenerated\\AD8676_A 976 96 R0
SYMATTR InstName U1
SYMBOL cap 1856 -96 R90
WINDOW 0 0 32 VBottom 2
WINDOW 3 32 32 VTop 2
SYMATTR InstName C3
SYMATTR Value 3.3nf
SYMBOL res 1520 96 R90
WINDOW 0 0 56 VBottom 2
WINDOW 3 32 56 VTop 2
SYMATTR InstName R6
SYMATTR Value 680
SYMBOL res 752 -304 R0
SYMATTR InstName R7
SYMATTR Value 1.2k
SYMBOL res 752 -192 R0
SYMATTR InstName R8
SYMATTR Value 190
SYMBOL cap 880 -160 R0
SYMATTR InstName C4
SYMATTR Value 10µf
TEXT 592 360 Left 2 !;ac dec 100 1k 200k
TEXT 600 328 Left 2 !.tran 0 0.001 0 startup
TEXT 2328 -328 Left 2 ;Copyright (c) 2020 Maxim Vovenko\n \nSoftware is hereby stated to be any and all digital files needed to produce a \nphysical product as described by these digital files.\n \nPermission is hereby granted, free of charge, to any person obtaining a copy\nof this software and associated documentation files (the "Software"), to deal\nin the Software without restriction, including without limitation the rights\nto use, copy, modify, merge, publish, distribute, sublicense, and/or sell\ncopies of the Software, and to permit persons to whom the Software is\nfurnished to do so, subject to the following conditions:\n \nThe above copyright notice and this permission notice shall be included in all\ncopies or substantial portions of the Software.\n \nTHE SOFTWARE IS PROVIDED "AS IS", WITHOUT WARRANTY OF ANY KIND, EXPRESS OR\nIMPLIED, INCLUDING BUT NOT LIMITED TO THE WARRANTIES OF MERCHANTABILITY,\nFITNESS FOR A PARTICULAR PURPOSE AND NONINFRINGEMENT. IN NO EVENT SHALL THE\nAUTHORS OR COPYRIGHT HOLDERS BE LIABLE FOR ANY CLAIM, DAMAGES OR OTHER\nLIABILITY, WHETHER IN AN ACTION OF CONTRACT, TORT OR OTHERWISE, ARISING FROM,\nOUT OF OR IN CONNECTION WITH THE SOFTWARE OR THE USE OR OTHER DEALINGS IN THE\nSOFTWARE.
